Version 4.1
SHEET 1 1692 916
WIRE 64 -48 16 -48
WIRE 192 -48 128 -48
WIRE 16 48 16 -48
WIRE 64 48 16 48
WIRE 192 48 192 -48
WIRE 192 48 144 48
WIRE 112 144 112 128
WIRE 704 144 704 128
WIRE 1440 160 1360 160
WIRE 1600 160 1520 160
WIRE 1616 160 1600 160
WIRE -640 176 -640 160
WIRE -512 176 -512 160
WIRE -384 176 -384 160
WIRE 112 176 112 144
WIRE 704 176 704 144
WIRE -256 192 -256 160
WIRE -48 192 -64 192
WIRE 16 192 16 48
WIRE 16 192 -48 192
WIRE 80 192 16 192
WIRE 608 192 592 192
WIRE 672 192 608 192
WIRE 192 208 192 48
WIRE 192 208 144 208
WIRE 224 208 192 208
WIRE 240 208 224 208
WIRE 832 208 736 208
WIRE 848 208 832 208
WIRE 1072 208 1040 208
WIRE 1120 208 1072 208
WIRE 1280 208 1200 208
WIRE 1360 208 1360 160
WIRE 1360 208 1280 208
WIRE 32 224 16 224
WIRE 80 224 32 224
WIRE 608 224 592 224
WIRE 672 224 608 224
WIRE -640 256 -640 176
WIRE -512 256 -512 176
WIRE -384 256 -384 176
WIRE -256 256 -256 192
WIRE 1360 256 1360 208
WIRE 1440 256 1360 256
WIRE 1600 256 1520 256
WIRE 1616 256 1600 256
WIRE 112 272 112 240
WIRE 704 272 704 240
WIRE 112 288 112 272
WIRE 704 288 704 272
WIRE -640 352 -640 336
WIRE -512 352 -512 336
WIRE -512 352 -640 352
WIRE -384 352 -384 336
WIRE -384 352 -512 352
WIRE -256 352 -256 336
WIRE -256 352 -384 352
WIRE -640 400 -640 352
WIRE 64 496 16 496
WIRE 192 496 128 496
WIRE 16 592 16 496
WIRE 64 592 16 592
WIRE 192 592 192 496
WIRE 192 592 144 592
WIRE 112 688 112 672
WIRE 112 720 112 688
WIRE 16 736 16 592
WIRE 16 736 -176 736
WIRE 80 736 16 736
WIRE 192 752 192 592
WIRE 192 752 144 752
WIRE 224 752 192 752
WIRE 240 752 224 752
WIRE -176 768 -176 736
WIRE 32 768 16 768
WIRE 80 768 32 768
WIRE 112 816 112 784
WIRE 112 832 112 816
WIRE -176 896 -176 848
FLAG 32 224 V_REF
FLAG -640 176 V_REF
FLAG 224 208 Output
FLAG 112 144 V+
FLAG -512 176 V+
FLAG 112 272 V-
FLAG -384 176 V-
FLAG 704 144 V+
FLAG 704 272 V-
FLAG 608 224 V_Target
FLAG 608 192 Ref
FLAG 832 208 Counter
FLAG 1072 208 Counter
FLAG 1280 208 Solution
FLAG 1600 160 Ref
FLAG 1600 256 Working
FLAG -640 400 0
FLAG -48 192 Working
FLAG -256 192 V_Target
FLAG 32 768 V_REF
FLAG 224 752 Output2
FLAG 112 688 V+
FLAG 112 816 V-
FLAG -176 896 0
SYMBOL OpAmps\\UniversalOpAmp2 112 208 R0
SYMATTR InstName U1
SYMBOL res 160 32 R90
WINDOW 0 0 56 VBottom 2
WINDOW 3 32 56 VTop 2
SYMATTR InstName R1
SYMATTR Value 10k
SYMBOL cap 128 -64 R90
WINDOW 0 0 32 VBottom 2
WINDOW 3 32 32 VTop 2
SYMATTR InstName C1
SYMATTR Value 100p
SYMBOL voltage -640 240 R0
WINDOW 123 0 0 Left 0
WINDOW 39 0 0 Left 0
SYMATTR InstName V1
SYMATTR Value 1.65
SYMBOL voltage -512 240 R0
WINDOW 123 0 0 Left 0
WINDOW 39 0 0 Left 0
SYMATTR InstName V2
SYMATTR Value 3.3
SYMBOL voltage -384 240 R0
WINDOW 123 0 0 Left 0
WINDOW 39 0 0 Left 0
SYMATTR InstName V3
SYMATTR Value 0
SYMBOL OpAmps\\UniversalOpAmp2 704 208 R0
SYMATTR InstName U2
SYMBOL res 1104 224 R270
WINDOW 0 32 56 VTop 2
WINDOW 3 0 56 VBottom 2
SYMATTR InstName R2
SYMATTR Value 1k
SYMBOL res 1536 144 R90
WINDOW 0 0 56 VBottom 2
WINDOW 3 32 56 VTop 2
SYMATTR InstName R3
SYMATTR Value 10k
SYMBOL res 1536 240 R90
WINDOW 0 0 56 VBottom 2
WINDOW 3 32 56 VTop 2
SYMATTR InstName R4
SYMATTR Value 1k
SYMBOL voltage -256 240 R0
WINDOW 123 0 0 Left 0
WINDOW 39 0 0 Left 0
SYMATTR InstName V4
SYMATTR Value PULSE(1.55 1.75 0 5 5 0 10)
SYMBOL OpAmps\\UniversalOpAmp2 112 752 R0
SYMATTR InstName U3
SYMBOL res 160 576 R90
WINDOW 0 0 56 VBottom 2
WINDOW 3 32 56 VTop 2
SYMATTR InstName R5
SYMATTR Value 10k
SYMBOL cap 128 480 R90
WINDOW 0 0 32 VBottom 2
WINDOW 3 32 32 VTop 2
SYMATTR InstName C2
SYMATTR Value 100p
SYMBOL current -176 768 R0
WINDOW 123 24 106 Left 2
WINDOW 39 0 0 Left 0
SYMATTR InstName I1
SYMATTR Value ""
SYMATTR Value2 AC 1
TEXT -560 -104 Left 2 ;.tran 10
TEXT -560 -64 Left 2 !.ac dec 100 1 10G
